#======================================================================

# CRYSTAL DATA

#----------------------------------------------------------------------

data_VESTA_phase_1


_pd_phase_name                         'FeCrFeFeCr_c/a=const_V(-1.5)'
_cell_length_a                         8.61993
_cell_length_b                         8.61993
_cell_length_c                         4.48918
_cell_angle_alpha                      90
_cell_angle_beta                       90
_cell_angle_gamma                      90
_symmetry_space_group_name_H-M         'P 1  '
_symmetry_Int_Tables_number            1

loop_
_symmetry_equiv_pos_as_xyz
   'x, y, z'

loop_
   _atom_site_label
   _atom_site_occupancy
   _atom_site_fract_x
   _atom_site_fract_y
   _atom_site_fract_z
   _atom_site_thermal_displace_type
   _atom_site_B_iso_or_equiv
   _atom_site_type_symbol
   Fe1      1.0    0            0            0           Biso  1.000  Fe
   Fe2      1.0    0.50000      0.50000      0.50000     Biso  1.000  Fe
   Cr1      1.0    0.39875      0.39875      0           Biso  1.000  Cr
   Cr2      1.0    0.60125      0.60125      0           Biso  1.000  Cr
   Cr3      1.0    0.10125      0.89875      0.50000     Biso  1.000  Cr
   Cr4      1.0    0.89875      0.10125      0.50000     Biso  1.000  Cr
   Fe3      1.0    0.46349      0.13123      0           Biso  1.000  Fe
   Fe4      1.0    0.53651      0.86877      0           Biso  1.000  Fe
   Fe5      1.0    0.36877      0.96349      0.50000     Biso  1.000  Fe
   Fe6      1.0    0.63123      0.03651      0.50000     Biso  1.000  Fe
   Fe7      1.0    0.03651      0.63123      0.50000     Biso  1.000  Fe
   Fe8      1.0    0.96349      0.36877      0.50000     Biso  1.000  Fe
   Fe9      1.0    0.86877      0.53651      0           Biso  1.000  Fe
   Fe10     1.0    0.13123      0.46349      0           Biso  1.000  Fe
   Fe11     1.0    0.73935      0.06611      0           Biso  1.000  Fe
   Fe12     1.0    0.26065      0.93389      0           Biso  1.000  Fe
   Fe13     1.0    0.43389      0.23935      0.50000     Biso  1.000  Fe
   Fe14     1.0    0.56611      0.76065      0.50000     Biso  1.000  Fe
   Fe15     1.0    0.76065      0.56611      0.50000     Biso  1.000  Fe
   Fe16     1.0    0.23935      0.43389      0.50000     Biso  1.000  Fe
   Fe17     1.0    0.93389      0.26065      0           Biso  1.000  Fe
   Fe18     1.0    0.06611      0.73935      0           Biso  1.000  Fe
   Cr5      1.0    0.18267      0.18267      0.25190     Biso  1.000  Cr
   Cr6      1.0    0.81733      0.81733      0.74810     Biso  1.000  Cr
   Cr7      1.0    0.31733      0.68267      0.75190     Biso  1.000  Cr
   Cr8      1.0    0.68267      0.31733      0.24810     Biso  1.000  Cr
   Cr9      1.0    0.81733      0.81733      0.25190     Biso  1.000  Cr
   Cr10     1.0    0.18267      0.18267      0.74810     Biso  1.000  Cr
   Cr11     1.0    0.68267      0.31733      0.75190     Biso  1.000  Cr
   Cr12     1.0    0.31733      0.68267      0.24810     Biso  1.000  Cr
