#\#CIF1.1
##########################################################################
#               Crystallographic Information Format file 
#               Produced by PyCifRW module
# 
#  This is a CIF file.  CIF has been adopted by the International
#  Union of Crystallography as the standard for data archiving and 
#  transmission.
#
#  For information on this file format, follow the CIF links at
#  http://www.iucr.org
##########################################################################

data_Na3MnPCO7
_symmetry_space_group_name_H-M          'P 1'
_cell_length_a                          6.84016486
_cell_length_b                          5.23853956123
_cell_length_c                          9.0576717449
_cell_angle_alpha                       89.8113351842
_cell_angle_beta                        90.0
_cell_angle_gamma                       90.0
_chemical_name_systematic               'Generated by pymatgen'
_symmetry_Int_Tables_number             1
_chemical_formula_structural            Na3MnPCO7
_chemical_formula_sum                   'Na6 Mn2 P2 C2 O14'
_cell_volume                            324.557029791
_cell_formula_units_Z                   2
loop_
  _symmetry_equiv_pos_site_id
  _symmetry_equiv_pos_as_xyz
   1  'x, y, z'
 
loop_
  _atom_site_type_symbol
  _atom_site_label
  _atom_site_symmetry_multiplicity
  _atom_site_fract_x
  _atom_site_fract_y
  _atom_site_fract_z
  _atom_site_attached_hydrogens
  _atom_site_B_iso_or_equiv
  _atom_site_occupancy
   Na  Na1  1  0.250000  0.758502  0.083114  0  .  1
   Na  Na2  1  0.750000  0.241498  0.916886  0  .  1
   Na  Na3  1  0.496665  0.247776  0.260784  0  .  1
   Na  Na4  1  0.996665  0.752224  0.739216  0  .  1
   Na  Na5  1  0.503335  0.752224  0.739216  0  .  1
   Na  Na6  1  0.003335  0.247776  0.260784  0  .  1
   Mn  Mn7  1  0.750000  0.778121  0.360996  0  .  1
   Mn  Mn8  1  0.250000  0.221879  0.639004  0  .  1
   P  P9  1  0.250000  0.705683  0.411871  0  .  1
   P  P10  1  0.750000  0.294317  0.588129  0  .  1
   C  C11  1  0.250000  0.264600  0.938873  0  .  1
   C  C12  1  0.750000  0.735400  0.061127  0  .  1
   O  O13  1  0.250000  0.828101  0.567831  0  .  1
   O  O14  1  0.750000  0.171899  0.432169  0  .  1
   O  O15  1  0.932548  0.213732  0.679962  0  .  1
   O  O16  1  0.432548  0.786268  0.320038  0  .  1
   O  O17  1  0.067452  0.786268  0.320038  0  .  1
   O  O18  1  0.567452  0.213732  0.679962  0  .  1
   O  O19  1  0.750000  0.710851  0.918760  0  .  1
   O  O20  1  0.250000  0.289149  0.081240  0  .  1
   O  O21  1  0.750000  0.591449  0.569195  0  .  1
   O  O22  1  0.250000  0.408551  0.430805  0  .  1
   O  O23  1  0.250000  0.039026  0.878628  0  .  1
   O  O24  1  0.750000  0.960974  0.121372  0  .  1
   O  O25  1  0.250000  0.466226  0.853582  0  .  1
   O  O26  1  0.750000  0.533774  0.146418  0  .  1
 
