data_example
_cell_length_a 24
_cell_length_b 5.91
_cell_length_c 5.85
_cell_angle_alpha 90
_cell_angle_beta 90
_cell_angle_gamma 90
_symmetry_space_group_name_H-M 'P1'
loop_
_symmetry_equiv_pos_as_xyz
x,y,z
loop_
_atom_site_label
_atom_site_type_symbol
_atom_site_fract_x
_atom_site_fract_y
_atom_site_fract_z
_atom_site_charge
O1 O 0.425 0.262 0.009 -2.0
O2 O -0.425 0.262 0.009 -2.0
H3 H 0.444 0.258 0.154 1.0
H4 H -0.444 0.258 0.154 1.0
H5 H 0.396 0.124 0.012 1.0
H6 H -0.396 0.124 0.012 1.0
O7 O 0.425 0.236 0.510 -2.0
O8 O -0.425 0.236 0.510 -2.0
H9 H 0.444 0.239 0.656 1.0
H10 H -0.444 0.239 0.656 1.0
H11 H 0.396 0.374 0.512 1.0
H12 H -0.396 0.374 0.512 1.0
Sr13 Sr 0.342 0.964 0.467 2.0
Sr14 Sr -0.342 0.964 0.467 2.0
Sr15 Sr 0.342 0.535 0.967 2.0
Sr16 Sr -0.342 0.535 0.967 2.0
O17 O 0.348 0.971 0.019 -2.0
O18 O -0.348 0.971 0.019 -2.0
O19 O 0.348 0.528 0.519 -2.0
O20 O -0.348 0.528 0.519 -2.0
O21 O 0.263 0.803 0.701 -2.0
O22 O -0.263 0.803 0.701 -2.0
O23 O 0.264 0.695 0.200 -2.0
O24 O -0.264 0.695 0.200 -2.0
Zr25 Zr 0.261 0.000 0.998 4.0
Zr26 Zr -0.261 0.000 0.998 4.0
Zr27 Zr 0.261 0.499 0.498 4.0
Zr28 Zr -0.261 0.499 0.498 4.0
O29 O 0.257 0.304 0.806 -2.0
O30 O -0.257 0.304 0.806 -2.0
O31 O 0.257 0.195 0.306 -2.0
O32 O -0.257 0.195 0.306 -2.0
Sr33 Sr 0.173 0.993 0.524 2.0
Sr34 Sr -0.173 0.993 0.524 2.0
Sr35 Sr 0.173 0.506 0.024 2.0
Sr36 Sr -0.173 0.506 0.024 2.0
O37 O 0.173 0.947 0.986 -2.0
O38 O -0.173 0.947 0.986 -2.0
O39 O 0.173 0.551 0.486 -2.0
O40 O -0.173 0.551 0.486 -2.0
O41 O 0.098 0.204 0.295 -2.0
O42 O -0.098 0.204 0.295 -2.0
O43 O 0.098 0.295 0.795 -2.0
O44 O -0.098 0.295 0.795 -2.0
Zr45 Zr 0.086 0.004 0.998 4.0
Zr46 Zr -0.086 0.004 0.998 4.0
Zr47 Zr 0.086 0.495 0.498 4.0
Zr48 Zr -0.086 0.495 0.498 4.0
O49 O 0.074 0.709 0.211 -2.0
O50 O -0.074 0.709 0.211 -2.0
O51 O 0.074 0.790 0.711 -2.0
O52 O -0.074 0.790 0.711 -2.0
Sr53 Sr 0 0.991 0.467 2.0
Sr54 Sr 0 0.508 0.967 2.0
O55 O 0 0.076 0.020 -2.0
O56 O 0 0.423 0.520 -2.0
