data_generated_by_cry2cif_script_from_crystal_program_output
_cell_length_a    11.068220
_cell_length_b    11.068220
_cell_length_c    11.068220
_cell_angle_alpha 60.000000
_cell_angle_beta  60.000000
_cell_angle_gamma 60.000000
_symmetry_space_group_name_H-M ' '
loop_
_symmetry_equiv_pos_as_xyz
+x,+y,+z
loop_
_atom_site_label
_atom_site_type_symbol
_atom_site_fract_x
_atom_site_fract_y
_atom_site_fract_z
O1   O    0.00815062   0.03150488  -0.00815062
O2   O    0.24728315   0.27114851  -0.24728315
O3   O    0.48896832  -0.46441507  -0.48896832
O4   O   -0.26764595  -0.21137336   0.26764595
O5   O    0.23978360  -0.21133002   0.26139493
O6   O   -0.26139493   0.28984851  -0.23978360
O7   O    0.48800115   0.03862609   0.01183473
O8   O   -0.01183473  -0.46153803  -0.48800115
O9   O   -0.25909154   0.28866807   0.25909154
O10   O   -0.01092533  -0.46713151   0.01092533
O11   O    0.23257145  -0.21113711  -0.23257145
O12   O    0.47954882   0.04739868  -0.47954882
O13   O   -0.00945105   0.03754326  -0.48818965
O14   O    0.48818965  -0.46009743   0.00945105
O15   O    0.23927460   0.28786998   0.26128744
O16   O   -0.26128744  -0.21156797  -0.23927460
O17   O   -0.01467678  -0.22066099   0.01467678
XX18   XX    0.25000000   0.00000000  -0.25000000
O19   O    0.49380725   0.29176818  -0.49380725
O20   O   -0.26076073  -0.46141009   0.26076073
O21   O    0.23944274  -0.46141113   0.26038759
O22   O   -0.26038759   0.03841920  -0.23944274
O23   O    0.49416609  -0.21607552   0.01590525
O24   O   -0.01590525   0.29399582  -0.49416609
O25   O   -0.26256132   0.04218165   0.26256132
O26   O   -0.01015004   0.28585692   0.01015004
O27   O    0.23754731  -0.46737228  -0.23754731
O28   O    0.48245992  -0.22018779  -0.48245992
O29   O   -0.01051165  -0.21149464  -0.48833419
O30   O    0.48833419   0.28965952   0.01051165
O31   O    0.23943667   0.03837445   0.26113525
O32   O   -0.26113525  -0.46105364  -0.23943667
O33   O   -0.26357409   0.04254077   0.00822253
O34   O   -0.00822253  -0.21281079   0.26357409
O35   O   -0.00099031   0.27912355  -0.24600577
O36   O    0.24600577   0.03212746   0.00099031
O37   O    0.23832908  -0.46288166  -0.48818662
O38   O    0.48818662   0.28726079  -0.23832908
O39   O    0.48778601  -0.21124717   0.26248348
O40   O   -0.26248348  -0.46097768  -0.48778601
O41   O    0.48883229   0.28973079   0.25979199
O42   O   -0.25979199   0.03835508  -0.48883229
O43   O   -0.25973205  -0.46409897   0.01027890
O44   O   -0.01027890   0.28644788   0.25973205
O45   O   -0.01202301  -0.21295931  -0.23922058
O46   O    0.23922058  -0.46420289   0.01202301
O47   O    0.23124895   0.04832982  -0.47945443
O48   O    0.47945443  -0.19987566  -0.23124895
FE49   FE   -0.13474454  -0.08625431   0.13474454
TI50   TI    0.10505500   0.17309761  -0.10505500
TI151   TI1    0.36794206   0.41504464  -0.36794206
TI152   TI1   -0.38565169  -0.33183456   0.38565169
TI153   TI1    0.11348356  -0.33278181   0.38398656
TI154   TI1   -0.38398656   0.16468831  -0.11348356
TI155   TI1    0.36673802  -0.08636009   0.13556058
TI156   TI1   -0.13556058   0.41593850  -0.36673802
TI157   TI1   -0.38256149   0.16691151   0.38256149
TI158   TI1   -0.13857118   0.42124854   0.13857118
TI159   TI1    0.11478532  -0.33194682  -0.11478532
TI1160   TI11    0.37224969  -0.08628027  -0.37224969
TI161   TI1   -0.13486438  -0.08577528  -0.36414161
TI162   TI1    0.36414161   0.41521873   0.13486438
TI163   TI1    0.11245809   0.16675584   0.38644620
TI164   TI1   -0.38644620  -0.33433987  -0.11245809
SR65   SR   -0.01721759   0.03791645  -0.23674718
SR66   SR    0.23674718  -0.21604833   0.01721759
SR67   SR    0.24016259   0.29750403  -0.49664360
SR68   SR    0.49664360   0.04102301  -0.24016259
SR69   SR    0.48852486  -0.46040411   0.26165262
SR70   SR   -0.26165262   0.28977337  -0.48852486
SR71   SR   -0.26038237  -0.20853945   0.01096418
SR72   SR   -0.01096418  -0.45795764   0.26038237
SR73   SR   -0.26370089   0.28945073   0.01126690
SR74   SR   -0.01126690   0.03701674   0.26370089
SR75   SR   -0.01023663  -0.45687320  -0.24190712
SR76   SR    0.24190712   0.29098305   0.01023663
SR77   SR    0.23850771  -0.21225655  -0.48787949
SR78   SR    0.48787949  -0.46162833  -0.23850771
SR79   SR    0.49110995   0.04282356   0.25704427
SR80   SR   -0.25704427  -0.20902223  -0.49110995
