# CIF file generated by openbabel 2.2.1, see http://openbabel.sf.net
data_I
_cell_length_a 5.7699
_cell_length_b 5.8143
_cell_length_c 8.1785
_cell_angle_alpha 90
_cell_angle_beta 90
_cell_angle_gamma 90
_symmetry_space_group_name_H-M 'p b n m'
loop_
    _atom_site_type_symbol
    _atom_site_fract_x
    _atom_site_fract_y
    _atom_site_fract_z
Sr      0.006599768   -0.470400    0.25
Hf      0.0             0.0        0
O       -0.07329936   -0.018499    0.25
O       0.214899738   0.2848993    0.038599988                                