# CIF file
# This file was generated by FINDSYM
# Harold T. Stokes, Branton J. Campbell, Dorian M. Hatch
# Brigham Young University, Provo, Utah, USA
 
data_findsym-output
 
_symmetry_space_group_name_H-M "I 4/m 2/c 2/m"
_symmetry_Int_Tables_number 140
 
_cell_length_a       5.51665
_cell_length_b       5.51665
_cell_length_c       7.80171
_cell_angle_alpha   90.00000
_cell_angle_beta    90.00000
_cell_angle_gamma   90.00000
 
loop_
_space_group_symop_operation_xyz
x,y,z
x,-y,-z+1/2
-x,y,-z+1/2
-x,-y,z
-y,-x,-z+1/2
-y,x,z
y,-x,z
y,x,-z+1/2
-x,-y,-z
-x,y,z+1/2
x,-y,z+1/2
x,y,-z
y,x,z+1/2
y,-x,-z
-y,x,-z
-y,-x,z+1/2
x+1/2,y+1/2,z+1/2
x+1/2,-y+1/2,-z
-x+1/2,y+1/2,-z
-x+1/2,-y+1/2,z+1/2
-y+1/2,-x+1/2,-z
-y+1/2,x+1/2,z+1/2
y+1/2,-x+1/2,z+1/2
y+1/2,x+1/2,-z
-x+1/2,-y+1/2,-z+1/2
-x+1/2,y+1/2,z
x+1/2,-y+1/2,z
x+1/2,y+1/2,-z+1/2
y+1/2,x+1/2,z
y+1/2,-x+1/2,-z+1/2
-y+1/2,x+1/2,-z+1/2
-y+1/2,-x+1/2,z
 
loop_
_atom_site_label
_atom_site_type_symbol
_atom_site_fract_x
_atom_site_fract_y
_atom_site_fract_z
_atom_site_occupancy
Ti1 Ti   0.00000   0.00000   0.00000   1.00000
O1 O   0.23602   0.73602   0.00000   1.00000
O2 O   0.00000   0.00000   0.25000   1.00000
Sr1 Sr   0.00000   0.50000   0.25000   1.00000
 