data_global
_cell_length_a 5.77400000
_cell_length_b 5.81800000
_cell_length_c 25.00000000
_cell_angle_alpha 90
_cell_angle_beta 90
_cell_angle_gamma 90
_symmetry_space_group_name_H-M 'P 2'
loop_
_atom_site_type_symbol
_atom_site_fract_x
_atom_site_fract_y
_atom_site_fract_z
O 	0.074641934		0.014374776		0.406442053	
H 	-0.125340297	-0.386872623	0.370513728			
H 	0.150403902		0.127136765		0.428340126	
O 	0.42659194		0.484112986		0.40638026	
H 	0.38974221		-0.410744897	0.434580019		
H 	-0.362848106	0.129282336		0.372115229		
O 	-0.189128722	-0.319981834	0.3382223			
O 	-0.309974176	0.179500605		0.337210554		
Hf	0.02507787		0.002973015		0.327900294	 
Hf	0.474642967		-0.498562847	0.327524619		 
O 	0.282760284		-0.224744377	0.308152911		
O 	0.218049032		0.275339604		0.306954369	
Sr	0.00282109		-0.467585813	0.243034154		 
Sr	0.496909702		0.03122423		0.243180184	 
O 	-0.077402311	-0.02122799		0.246000848		
O 	-0.42219778		0.479969571		0.246118548	
O 	0.216114779		0.283750062		0.175433253	
O 	0.283967208		-0.216334381	0.175478306		
Hf	-0.000704061	0.000772989		0.16402745		 
Hf	-0.499378597	-0.499360511	0.163949131			 
O 	-0.285323482	0.214955898		0.151457607		
O 	-0.214789746	-0.285138707	0.151371472			
Sr	-0.004838758	0.471893479		0.081678764		 
Sr	-0.495098642	-0.028066454	0.081732236			 
O 	0.070111736		0.017809093		0.081912218	
O 	0.429877256		-0.482077548	0.081929528		
O 	-0.213496027	-0.286360431	0.0120587			
O 	-0.286522412	0.213712746		0.012090029		
Hf	0.0000000000	0.0000000000	0.0000000000			
Hf	-0.500000000	-0.500000000	0.0000000000